30

  C       -5.86786        2.26337        0.00000
  C       -7.20159        1.45156        0.00000
  C       -7.20159       -0.08844        0.00000
  C       -5.86786       -0.81682        0.00000
  C       -4.53413       -0.04663        0.00000
  C       -4.53413        1.49337        0.00000
  C       -3.20058        2.26337        0.00000
  C       -1.86685        1.49337        0.00000
  C       -0.53311        2.26337        0.00000
  C       -1.86685       -0.04663        0.00000
  N       -0.53311       -0.81663        0.00000
  C        0.80043       -0.04663        0.00000
  C        0.80043        1.49337        0.00000
  C        2.13417        2.26337        0.00000
  C        3.46790        1.49337        0.00000
  O       -0.53330        3.80337        0.00000
  C        4.80145        2.26337        0.00000
  C        3.46790       -0.04663        0.00000
  C        4.80145       -0.81663        0.00000
  C        6.13518       -0.04663        0.00000
  C        6.13518        1.49337        0.00000
 Br        7.46891        2.26337        0.00000
 Br       -8.54410        2.20606        0.00000
  C        0.80043       -3.12663        0.00000
  C        0.80062       -4.66663        0.00000
  C        2.13417       -5.43663        0.00000
  C        3.46790       -4.66663        0.00000
  C        3.46790       -3.12663        0.00000
  C        2.13417       -2.35663        0.00000
  C       -0.53311       -2.35663        0.00000
